*Heading
** Job name: Job-2 Model name: Model-1
** Generated by: Abaqus/CAE Student Edition 2018
*Preprint, echo=NO, model=NO, history=NO, contact=NO
**
** PARTS
**
*Part, name=Part-1
*Node
      1,          50.,         100.,           6.
      2,          50.,   94.1176453,           6.
      3,          50.,   88.2352905,           6.
      4,          50.,   82.3529434,           6.
      5,          50.,   76.4705887,           6.
      6,          50.,   70.5882339,           6.
      7,          50.,   64.7058792,           6.
      8,          50.,   58.8235283,           6.
      9,          50.,   52.9411774,           6.
     10,          50.,   47.0588226,           6.
     11,          50.,   41.1764717,           6.
     12,          50.,    35.294117,           6.
     13,          50.,   29.4117641,           6.
     14,          50.,   23.5294113,           6.
     15,          50.,   17.6470585,           6.
     16,          50.,   11.7647057,           6.
     17,          50.,   5.88235283,           6.
     18,          50.,           0.,           6.
     19,          50.,         100.,           0.
     20,          50.,   94.1176453,           0.
** ... 304 like lines cut
*Element, type=C3D8R
  1,  37,  38,  56,  55,   1,   2,  20,  19
  2,  38,  39,  57,  56,   2,   3,  21,  20
  3,  39,  40,  58,  57,   3,   4,  22,  21
  4,  40,  41,  59,  58,   4,   5,  23,  22
  5,  41,  42,  60,  59,   5,   6,  24,  23
  6,  42,  43,  61,  60,   6,   7,  25,  24
  7,  43,  44,  62,  61,   7,   8,  26,  25
  8,  44,  45,  63,  62,   8,   9,  27,  26
  9,  45,  46,  64,  63,   9,  10,  28,  27
 10,  46,  47,  65,  64,  10,  11,  29,  28
 11,  47,  48,  66,  65,  11,  12,  30,  29
 12,  48,  49,  67,  66,  12,  13,  31,  30
 13,  49,  50,  68,  67,  13,  14,  32,  31
 14,  50,  51,  69,  68,  14,  15,  33,  32
 15,  51,  52,  70,  69,  15,  16,  34,  33
 16,  52,  53,  71,  70,  16,  17,  35,  34
 17,  53,  54,  72,  71,  17,  18,  36,  35
 18,  73,  74,  92,  91,  37,  38,  56,  55
 19,  74,  75,  93,  92,  38,  39,  57,  56
 20,  75,  76,  94,  93,  39,  40,  58,  57
** ... 116 like lines cut
*Nset, nset=Set-1, generate
   1,  324,    1
*Elset, elset=Set-1, generate
   1,  136,    1
** Section: Section-1
*Solid Section, elset=Set-1, material=Material-1
,
*End Part
**  
*Part, name=Part-2
*End Part
**  
**
** ASSEMBLY
**
*Assembly, name=Assembly
**  
*Instance, name=Part-1-1, part=Part-1
*End Instance
**  
*Instance, name=Part-2-1, part=Part-2
*End Instance
**  
*Nset, nset=Set-3, instance=Part-1-1
   1,   2,   3,   4,   5,   6,   7,   8,   9,  10,  11,  12,  13,  14,  15,  16
  17,  18,  37,  38,  39,  40,  41,  42,  43,  44,  45,  46,  47,  48,  49,  50
  51,  52,  53,  54,  73,  74,  75,  76,  77,  78,  79,  80,  81,  82,  83,  84
  85,  86,  87,  88,  89,  90, 109, 110, 111, 112, 113, 114, 115, 116, 117, 118
 119, 120, 121, 122, 123, 124, 125, 126, 145, 146, 147, 148, 149, 150, 151, 152
 153, 154, 155, 156, 157, 158, 159, 160, 161, 162, 181, 182, 183, 184, 185, 186
 187, 188, 189, 190, 191, 192, 193, 194, 195, 196, 197, 198, 217, 218, 219, 220
 221, 222, 223, 224, 225, 226, 227, 228, 229, 230, 231, 232, 233, 234, 253, 254
 255, 256, 257, 258, 259, 260, 261, 262, 263, 264, 265, 266, 267, 268, 269, 270
 289, 290, 291, 292, 293, 294, 295, 296, 297, 298, 299, 300, 301, 302, 303, 304
 305, 306
*Elset, elset=Set-3, instance=Part-1-1, generate
   1,  136,    1
*Nset, nset=Set-4, instance=Part-1-1, generate
  18,  324,   18
*Elset, elset=Set-4, instance=Part-1-1, generate
  17,  136,   17
*Nset, nset=Set-5, instance=Part-1-1, generate
   1,  307,   18
*Elset, elset=Set-5, instance=Part-1-1, generate
   1,  120,   17
*Nset, nset=_PickedSet6, internal, instance=Part-1-1, generate
   1,  324,    1
*Elset, elset=_PickedSet6, internal, instance=Part-1-1, generate
   1,  136,    1
*Enrichment, name=Crack-1, type=PROPAGATION CRACK, elset=_PickedSet6
*End Assembly
** 
** MATERIALS
** 
*Material, name=Material-1
*Damage Initiation, criterion=MAXPS
60.,
*Damage Evolution, type=DISPLACEMENT
2.,
*Elastic
5000., 0.3
*Initial Conditions, type=ENRICHMENT
Part-1-1.94, 1,Crack-1, -2.94118, -2.5
Part-1-1.94, 2,Crack-1, 2.94118, -2.5
Part-1-1.94, 3,Crack-1, 2.94118, -2.5
Part-1-1.94, 4,Crack-1, -2.94118, -2.5
Part-1-1.94, 5,Crack-1, -2.94118, 3.75
Part-1-1.94, 6,Crack-1, 2.94118, 3.75
Part-1-1.94, 7,Crack-1, 2.94118, 3.75
Part-1-1.94, 8,Crack-1, -2.94118, 3.75
Part-1-1.111, 1,Crack-1, -2.94118
Part-1-1.111, 2,Crack-1, 2.94118
Part-1-1.111, 3,Crack-1, 2.94118
Part-1-1.111, 4,Crack-1, -2.94118
Part-1-1.111, 5,Crack-1, -2.94118
Part-1-1.111, 6,Crack-1, 2.94118
Part-1-1.111, 7,Crack-1, 2.94118
Part-1-1.111, 8,Crack-1, -2.94118
Part-1-1.128, 1,Crack-1, -2.94118
Part-1-1.128, 2,Crack-1, 2.94118
Part-1-1.128, 3,Crack-1, 2.94118
Part-1-1.128, 4,Crack-1, -2.94118
** ... 4 like lines cut
** ----------------------------------------------------------------
** 
** STEP: Step-1
** 
*Step, name=Step-1, nlgeom=YES
*Static
1., 10., 2e-10, 10.
** 
** BOUNDARY CONDITIONS
** 
** Name: BC-1 Type: Displacement/Rotation
*Boundary
Set-3, 1, 1
Set-3, 3, 3
Set-3, 4, 4
Set-3, 5, 5
Set-3, 6, 6
** Name: BC-2 Type: Displacement/Rotation
*Boundary
Set-4, 1, 1
Set-4, 2, 2
Set-4, 3, 3
Set-4, 4, 4
Set-4, 5, 5
Set-4, 6, 6
** Name: BC-3 Type: Displacement/Rotation
*Boundary
Set-5, 1, 1
Set-5, 2, 2, 20.
Set-5, 3, 3
Set-5, 4, 4
Set-5, 5, 5
Set-5, 6, 6
** 
** OUTPUT REQUESTS
** 
*Restart, write, frequency=0
** 
** FIELD OUTPUT: F-Output-1
** 
*Output, field
*Node Output
CF, PHILSM, PSILSM, RF, U
*Element Output, directions=YES
EEQUT, ENER, LE, MVF, PE, PEEQ, PEMAG, S, SEQUT, STATUS, STATUSXFEM, TE, TEEQ, TEVOL
*Contact Output
CDISP, CSTRESS, ENRRT
** 
** HISTORY OUTPUT: H-Output-1
** 
*Output, history, variable=PRESELECT
*End Step
