 Abaqus/Standard Student Edition 2018                  DATE 20-Mar-2019 TIME 11:43:31
 SUMMARY OF JOB INFORMATION:
 STEP  INC ATT SEVERE EQUIL TOTAL  TOTAL      STEP       INC OF       DOF    IF
               DISCON ITERS ITERS  TIME/    TIME/LPF    TIME/LPF    MONITOR RIKS
               ITERS               FREQ
   1     1   1U    0     1     1  0.000      0.000      1.000     
   1     1   2     0     2     2  0.346      0.346      0.3460    
   1     2   1U    0     1     1  0.346      0.346      0.3460    
   1     2   2U    0     1     1  0.346      0.346      0.1769    
   1     2   3U    0     1     1  0.346      0.346      0.06161   
   1     2   4     0     2     2  0.365      0.365      0.01902   
   1     3   1     0     2     2  0.394      0.394      0.02854   
   1     4   1U    0     4     4  0.394      0.394      0.04281   
   1     4   2U    0     4     4  0.394      0.394      0.01070   
   1     4   3U    0     4     4  0.394      0.394      0.002675  
   1     4   4U    0     4     4  0.394      0.394      0.0006688 
   1     4   5U    0     4     4  0.394      0.394      0.0001672 
                          
 THE ANALYSIS HAS NOT BEEN COMPLETED
