 Abaqus/Standard Student Edition 2018                  DATE 20-Mar-2019 TIME 10:49:46
 SUMMARY OF JOB INFORMATION:
 STEP  INC ATT SEVERE EQUIL TOTAL  TOTAL      STEP       INC OF       DOF    IF
               DISCON ITERS ITERS  TIME/    TIME/LPF    TIME/LPF    MONITOR RIKS
               ITERS               FREQ
   1     1   1U    0     1     1  0.000      0.000      0.2000    
   1     1   2     0     2     2  0.0466     0.0466     0.04659   
   1     2   1U    0     1     1  0.0466     0.0466     0.04659   
   1     2   2U    0     1     1  0.0466     0.0466     0.02135   
   1     2   3U    0     1     1  0.0466     0.0466     0.006989  
   1     2   4     0     2     2  0.0486     0.0486     0.002020  
   1     3   1     0     2     2  0.0516     0.0516     0.003030  
   1     4   1U    0     1     1  0.0516     0.0516     0.004544  
   1     4   2U    0     1     1  0.0516     0.0516     0.003960  
   1     4   3     0     2     2  0.0534     0.0534     0.001756  
   1     5   1U    0     1     1  0.0534     0.0534     0.002635  
   1     5   2U    0     1     1  0.0534     0.0534     0.002226  
   1     5   3U    0     1     1  0.0534     0.0534     0.0008047 
   1     5   4U    0     1     1  0.0534     0.0534     0.0002209 
   1     5   5U    0     1     1  0.0534     0.0534     4.822e-05 
                          
 THE ANALYSIS HAS NOT BEEN COMPLETED
